/*---------------------------------------------------------------------------*\
  =========                 |
  \\      /  F ield         | OpenFOAM: The Open Source CFD Toolbox
   \\    /   O peration     |
    \\  /    A nd           | Copyright held by the original author
     \\/     M anipulation  |
\*---------------------------------------------------------------------------*/
FoamFile
{
    version     2.0;
    format      ascii;
    class       dictionary;
    location    "system";
    object      setFieldsDict;
}
// * * * * * * * * * * * * * * * * * * * * * * * * * * * * * * * * * * * * * //

defaultFieldValues
(
    volScalarFieldValue alpha.fuel 1
);

regions
(
    boxToCell
    {
        box (-22.5 -11.25 -0.2255e-3) (22.5 11.25 0);
        fieldValues
        (
            volScalarFieldValue alpha.fuel 0.9
        );
    }
);


// ************************************************************************* //
