/*---------------------------------------------------------------------------*\
  =========                 |
  \\      /  F ield         | OpenFOAM: The Open Source CFD Toolbox
   \\    /   O peration     |
    \\  /    A nd           | Copyright held by the original author
     \\/     M anipulation  |
\*---------------------------------------------------------------------------*/
FoamFile
{
    version     2.0;
    format      ascii;
    class       dictionary;
    object      blockMeshDict;
}

// * * * * * * * * * * * * * * * * * * * * * * * * * * * * * * * * * * * * * //

convertToMeters 0.001;

vertices
(
( 0.00 -11.25 2.2255) ( 0.00 -10.75 2.2255) ( 0.00 -9.95 2.2255) ( 0.00 9.95 2.2255) ( 0.00 10.75 2.2255) ( 0.00 11.25 2.2255) ( 0.05 -11.25 2.2255) ( 0.05 -10.75 2.2255) 
( 0.05 -9.95 2.2255) ( 0.05 9.95 2.2255) ( 0.05 10.75 2.2255) ( 0.05 11.25 2.2255) ( 0.85 -11.25 2.2255) ( 0.85 -10.75 2.2255) ( 0.85 -9.95 2.2255) ( 0.85 9.95 2.2255) 
( 0.85 10.75 2.2255) ( 0.85 11.25 2.2255) ( 1.85 -11.25 2.2255) ( 1.85 -10.75 2.2255) ( 1.85 -9.95 2.2255) ( 1.85 9.95 2.2255) ( 1.85 10.75 2.2255) ( 1.85 11.25 2.2255) 
( 2.65 -11.25 2.2255) ( 2.65 -10.75 2.2255) ( 2.65 -9.95 2.2255) ( 2.65 9.95 2.2255) ( 2.65 10.75 2.2255) ( 2.65 11.25 2.2255) ( 3.65 -11.25 2.2255) ( 3.65 -10.75 2.2255) 
( 3.65 -9.95 2.2255) ( 3.65 9.95 2.2255) ( 3.65 10.75 2.2255) ( 3.65 11.25 2.2255) ( 4.45 -11.25 2.2255) ( 4.45 -10.75 2.2255) ( 4.45 -9.95 2.2255) ( 4.45 9.95 2.2255) 
( 4.45 10.75 2.2255) ( 4.45 11.25 2.2255) ( 5.45 -11.25 2.2255) ( 5.45 -10.75 2.2255) ( 5.45 -9.95 2.2255) ( 5.45 9.95 2.2255) ( 5.45 10.75 2.2255) ( 5.45 11.25 2.2255) 
( 6.25 -11.25 2.2255) ( 6.25 -10.75 2.2255) ( 6.25 -9.95 2.2255) ( 6.25 9.95 2.2255) ( 6.25 10.75 2.2255) ( 6.25 11.25 2.2255) ( 7.25 -11.25 2.2255) ( 7.25 -10.75 2.2255) 
( 7.25 -9.95 2.2255) ( 7.25 9.95 2.2255) ( 7.25 10.75 2.2255) ( 7.25 11.25 2.2255) ( 8.05 -11.25 2.2255) ( 8.05 -10.75 2.2255) ( 8.05 -9.95 2.2255) ( 8.05 9.95 2.2255) 
( 8.05 10.75 2.2255) ( 8.05 11.25 2.2255) ( 9.05 -11.25 2.2255) ( 9.05 -10.75 2.2255) ( 9.05 -9.95 2.2255) ( 9.05 9.95 2.2255) ( 9.05 10.75 2.2255) ( 9.05 11.25 2.2255) 
( 9.85 -11.25 2.2255) ( 9.85 -10.75 2.2255) ( 9.85 -9.95 2.2255) ( 9.85 9.95 2.2255) ( 9.85 10.75 2.2255) ( 9.85 11.25 2.2255) ( 10.85 -11.25 2.2255) ( 10.85 -10.75 2.2255) 
( 10.85 -9.95 2.2255) ( 10.85 9.95 2.2255) ( 10.85 10.75 2.2255) ( 10.85 11.25 2.2255) ( 11.65 -11.25 2.2255) ( 11.65 -10.75 2.2255) ( 11.65 -9.95 2.2255) ( 11.65 9.95 2.2255) 
( 11.65 10.75 2.2255) ( 11.65 11.25 2.2255) ( 12.65 -11.25 2.2255) ( 12.65 -10.75 2.2255) ( 12.65 -9.95 2.2255) ( 12.65 9.95 2.2255) ( 12.65 10.75 2.2255) ( 12.65 11.25 2.2255) 
( 13.45 -11.25 2.2255) ( 13.45 -10.75 2.2255) ( 13.45 -9.95 2.2255) ( 13.45 9.95 2.2255) ( 13.45 10.75 2.2255) ( 13.45 11.25 2.2255) ( 14.45 -11.25 2.2255) ( 14.45 -10.75 2.2255) 
( 14.45 -9.95 2.2255) ( 14.45 9.95 2.2255) ( 14.45 10.75 2.2255) ( 14.45 11.25 2.2255) ( 15.25 -11.25 2.2255) ( 15.25 -10.75 2.2255) ( 15.25 -9.95 2.2255) ( 15.25 9.95 2.2255) 
( 15.25 10.75 2.2255) ( 15.25 11.25 2.2255) ( 16.25 -11.25 2.2255) ( 16.25 -10.75 2.2255) ( 16.25 -9.95 2.2255) ( 16.25 9.95 2.2255) ( 16.25 10.75 2.2255) ( 16.25 11.25 2.2255) 
( 17.05 -11.25 2.2255) ( 17.05 -10.75 2.2255) ( 17.05 -9.95 2.2255) ( 17.05 9.95 2.2255) ( 17.05 10.75 2.2255) ( 17.05 11.25 2.2255) ( 18.05 -11.25 2.2255) ( 18.05 -10.75 2.2255) 
( 18.05 -9.95 2.2255) ( 18.05 9.95 2.2255) ( 18.05 10.75 2.2255) ( 18.05 11.25 2.2255) ( 18.85 -11.25 2.2255) ( 18.85 -10.75 2.2255) ( 18.85 -9.95 2.2255) ( 18.85 9.95 2.2255) 
( 18.85 10.75 2.2255) ( 18.85 11.25 2.2255) ( 19.85 -11.25 2.2255) ( 19.85 -10.75 2.2255) ( 19.85 -9.95 2.2255) ( 19.85 9.95 2.2255) ( 19.85 10.75 2.2255) ( 19.85 11.25 2.2255) 
( 20.65 -11.25 2.2255) ( 20.65 -10.75 2.2255) ( 20.65 -9.95 2.2255) ( 20.65 9.95 2.2255) ( 20.65 10.75 2.2255) ( 20.65 11.25 2.2255) ( 21.65 -11.25 2.2255) ( 21.65 -10.75 2.2255) 
( 21.65 -9.95 2.2255) ( 21.65 9.95 2.2255) ( 21.65 10.75 2.2255) ( 21.65 11.25 2.2255) ( 22.45 -11.25 2.2255) ( 22.45 -10.75 2.2255) ( 22.45 -9.95 2.2255) ( 22.45 9.95 2.2255) 
( 22.45 10.75 2.2255) ( 22.45 11.25 2.2255) ( 22.50 -11.25 2.2255) ( 22.50 -10.75 2.2255) ( 22.50 -9.95 2.2255) ( 22.50 9.95 2.2255) ( 22.50 10.75 2.2255) ( 22.50 11.25 2.2255) 
( 0.00 -11.25 1.2255) ( 0.00 -10.75 1.2255) ( 0.00 -9.95 1.2255) ( 0.00 9.95 1.2255) ( 0.00 10.75 1.2255) ( 0.00 11.25 1.2255) ( 0.05 -11.25 1.2255) ( 0.05 -10.75 1.2255) 
( 0.05 -9.95 1.2255) ( 0.05 9.95 1.2255) ( 0.05 10.75 1.2255) ( 0.05 11.25 1.2255) ( 0.85 -11.25 1.2255) ( 0.85 -10.75 1.2255) ( 0.85 -9.95 1.2255) ( 0.85 9.95 1.2255) 
( 0.85 10.75 1.2255) ( 0.85 11.25 1.2255) ( 1.85 -11.25 1.2255) ( 1.85 -10.75 1.2255) ( 1.85 -9.95 1.2255) ( 1.85 9.95 1.2255) ( 1.85 10.75 1.2255) ( 1.85 11.25 1.2255) 
( 2.65 -11.25 1.2255) ( 2.65 -10.75 1.2255) ( 2.65 -9.95 1.2255) ( 2.65 9.95 1.2255) ( 2.65 10.75 1.2255) ( 2.65 11.25 1.2255) ( 3.65 -11.25 1.2255) ( 3.65 -10.75 1.2255) 
( 3.65 -9.95 1.2255) ( 3.65 9.95 1.2255) ( 3.65 10.75 1.2255) ( 3.65 11.25 1.2255) ( 4.45 -11.25 1.2255) ( 4.45 -10.75 1.2255) ( 4.45 -9.95 1.2255) ( 4.45 9.95 1.2255) 
( 4.45 10.75 1.2255) ( 4.45 11.25 1.2255) ( 5.45 -11.25 1.2255) ( 5.45 -10.75 1.2255) ( 5.45 -9.95 1.2255) ( 5.45 9.95 1.2255) ( 5.45 10.75 1.2255) ( 5.45 11.25 1.2255) 
( 6.25 -11.25 1.2255) ( 6.25 -10.75 1.2255) ( 6.25 -9.95 1.2255) ( 6.25 9.95 1.2255) ( 6.25 10.75 1.2255) ( 6.25 11.25 1.2255) ( 7.25 -11.25 1.2255) ( 7.25 -10.75 1.2255) 
( 7.25 -9.95 1.2255) ( 7.25 9.95 1.2255) ( 7.25 10.75 1.2255) ( 7.25 11.25 1.2255) ( 8.05 -11.25 1.2255) ( 8.05 -10.75 1.2255) ( 8.05 -9.95 1.2255) ( 8.05 9.95 1.2255) 
( 8.05 10.75 1.2255) ( 8.05 11.25 1.2255) ( 9.05 -11.25 1.2255) ( 9.05 -10.75 1.2255) ( 9.05 -9.95 1.2255) ( 9.05 9.95 1.2255) ( 9.05 10.75 1.2255) ( 9.05 11.25 1.2255) 
( 9.85 -11.25 1.2255) ( 9.85 -10.75 1.2255) ( 9.85 -9.95 1.2255) ( 9.85 9.95 1.2255) ( 9.85 10.75 1.2255) ( 9.85 11.25 1.2255) ( 10.85 -11.25 1.2255) ( 10.85 -10.75 1.2255) 
( 10.85 -9.95 1.2255) ( 10.85 9.95 1.2255) ( 10.85 10.75 1.2255) ( 10.85 11.25 1.2255) ( 11.65 -11.25 1.2255) ( 11.65 -10.75 1.2255) ( 11.65 -9.95 1.2255) ( 11.65 9.95 1.2255) 
( 11.65 10.75 1.2255) ( 11.65 11.25 1.2255) ( 12.65 -11.25 1.2255) ( 12.65 -10.75 1.2255) ( 12.65 -9.95 1.2255) ( 12.65 9.95 1.2255) ( 12.65 10.75 1.2255) ( 12.65 11.25 1.2255) 
( 13.45 -11.25 1.2255) ( 13.45 -10.75 1.2255) ( 13.45 -9.95 1.2255) ( 13.45 9.95 1.2255) ( 13.45 10.75 1.2255) ( 13.45 11.25 1.2255) ( 14.45 -11.25 1.2255) ( 14.45 -10.75 1.2255) 
( 14.45 -9.95 1.2255) ( 14.45 9.95 1.2255) ( 14.45 10.75 1.2255) ( 14.45 11.25 1.2255) ( 15.25 -11.25 1.2255) ( 15.25 -10.75 1.2255) ( 15.25 -9.95 1.2255) ( 15.25 9.95 1.2255) 
( 15.25 10.75 1.2255) ( 15.25 11.25 1.2255) ( 16.25 -11.25 1.2255) ( 16.25 -10.75 1.2255) ( 16.25 -9.95 1.2255) ( 16.25 9.95 1.2255) ( 16.25 10.75 1.2255) ( 16.25 11.25 1.2255) 
( 17.05 -11.25 1.2255) ( 17.05 -10.75 1.2255) ( 17.05 -9.95 1.2255) ( 17.05 9.95 1.2255) ( 17.05 10.75 1.2255) ( 17.05 11.25 1.2255) ( 18.05 -11.25 1.2255) ( 18.05 -10.75 1.2255) 
( 18.05 -9.95 1.2255) ( 18.05 9.95 1.2255) ( 18.05 10.75 1.2255) ( 18.05 11.25 1.2255) ( 18.85 -11.25 1.2255) ( 18.85 -10.75 1.2255) ( 18.85 -9.95 1.2255) ( 18.85 9.95 1.2255) 
( 18.85 10.75 1.2255) ( 18.85 11.25 1.2255) ( 19.85 -11.25 1.2255) ( 19.85 -10.75 1.2255) ( 19.85 -9.95 1.2255) ( 19.85 9.95 1.2255) ( 19.85 10.75 1.2255) ( 19.85 11.25 1.2255) 
( 20.65 -11.25 1.2255) ( 20.65 -10.75 1.2255) ( 20.65 -9.95 1.2255) ( 20.65 9.95 1.2255) ( 20.65 10.75 1.2255) ( 20.65 11.25 1.2255) ( 21.65 -11.25 1.2255) ( 21.65 -10.75 1.2255) 
( 21.65 -9.95 1.2255) ( 21.65 9.95 1.2255) ( 21.65 10.75 1.2255) ( 21.65 11.25 1.2255) ( 22.45 -11.25 1.2255) ( 22.45 -10.75 1.2255) ( 22.45 -9.95 1.2255) ( 22.45 9.95 1.2255) 
( 22.45 10.75 1.2255) ( 22.45 11.25 1.2255) ( 22.50 -11.25 1.2255) ( 22.50 -10.75 1.2255) ( 22.50 -9.95 1.2255) ( 22.50 9.95 1.2255) ( 22.50 10.75 1.2255) ( 22.50 11.25 1.2255) 
( 0.00 -11.25 0.2255) ( 0.00 -10.75 0.2255) ( 0.00 -9.95 0.2255) ( 0.00 9.95 0.2255) ( 0.00 10.75 0.2255) ( 0.00 11.25 0.2255) ( 0.05 -11.25 0.2255) ( 0.05 -10.75 0.2255) 
( 0.05 -9.95 0.2255) ( 0.05 9.95 0.2255) ( 0.05 10.75 0.2255) ( 0.05 11.25 0.2255) ( 0.85 -11.25 0.2255) ( 0.85 -10.75 0.2255) ( 0.85 -9.95 0.2255) ( 0.85 9.95 0.2255) 
( 0.85 10.75 0.2255) ( 0.85 11.25 0.2255) ( 1.85 -11.25 0.2255) ( 1.85 -10.75 0.2255) ( 1.85 -9.95 0.2255) ( 1.85 9.95 0.2255) ( 1.85 10.75 0.2255) ( 1.85 11.25 0.2255) 
( 2.65 -11.25 0.2255) ( 2.65 -10.75 0.2255) ( 2.65 -9.95 0.2255) ( 2.65 9.95 0.2255) ( 2.65 10.75 0.2255) ( 2.65 11.25 0.2255) ( 3.65 -11.25 0.2255) ( 3.65 -10.75 0.2255) 
( 3.65 -9.95 0.2255) ( 3.65 9.95 0.2255) ( 3.65 10.75 0.2255) ( 3.65 11.25 0.2255) ( 4.45 -11.25 0.2255) ( 4.45 -10.75 0.2255) ( 4.45 -9.95 0.2255) ( 4.45 9.95 0.2255) 
( 4.45 10.75 0.2255) ( 4.45 11.25 0.2255) ( 5.45 -11.25 0.2255) ( 5.45 -10.75 0.2255) ( 5.45 -9.95 0.2255) ( 5.45 9.95 0.2255) ( 5.45 10.75 0.2255) ( 5.45 11.25 0.2255) 
( 6.25 -11.25 0.2255) ( 6.25 -10.75 0.2255) ( 6.25 -9.95 0.2255) ( 6.25 9.95 0.2255) ( 6.25 10.75 0.2255) ( 6.25 11.25 0.2255) ( 7.25 -11.25 0.2255) ( 7.25 -10.75 0.2255) 
( 7.25 -9.95 0.2255) ( 7.25 9.95 0.2255) ( 7.25 10.75 0.2255) ( 7.25 11.25 0.2255) ( 8.05 -11.25 0.2255) ( 8.05 -10.75 0.2255) ( 8.05 -9.95 0.2255) ( 8.05 9.95 0.2255) 
( 8.05 10.75 0.2255) ( 8.05 11.25 0.2255) ( 9.05 -11.25 0.2255) ( 9.05 -10.75 0.2255) ( 9.05 -9.95 0.2255) ( 9.05 9.95 0.2255) ( 9.05 10.75 0.2255) ( 9.05 11.25 0.2255) 
( 9.85 -11.25 0.2255) ( 9.85 -10.75 0.2255) ( 9.85 -9.95 0.2255) ( 9.85 9.95 0.2255) ( 9.85 10.75 0.2255) ( 9.85 11.25 0.2255) ( 10.85 -11.25 0.2255) ( 10.85 -10.75 0.2255) 
( 10.85 -9.95 0.2255) ( 10.85 9.95 0.2255) ( 10.85 10.75 0.2255) ( 10.85 11.25 0.2255) ( 11.65 -11.25 0.2255) ( 11.65 -10.75 0.2255) ( 11.65 -9.95 0.2255) ( 11.65 9.95 0.2255) 
( 11.65 10.75 0.2255) ( 11.65 11.25 0.2255) ( 12.65 -11.25 0.2255) ( 12.65 -10.75 0.2255) ( 12.65 -9.95 0.2255) ( 12.65 9.95 0.2255) ( 12.65 10.75 0.2255) ( 12.65 11.25 0.2255) 
( 13.45 -11.25 0.2255) ( 13.45 -10.75 0.2255) ( 13.45 -9.95 0.2255) ( 13.45 9.95 0.2255) ( 13.45 10.75 0.2255) ( 13.45 11.25 0.2255) ( 14.45 -11.25 0.2255) ( 14.45 -10.75 0.2255) 
( 14.45 -9.95 0.2255) ( 14.45 9.95 0.2255) ( 14.45 10.75 0.2255) ( 14.45 11.25 0.2255) ( 15.25 -11.25 0.2255) ( 15.25 -10.75 0.2255) ( 15.25 -9.95 0.2255) ( 15.25 9.95 0.2255) 
( 15.25 10.75 0.2255) ( 15.25 11.25 0.2255) ( 16.25 -11.25 0.2255) ( 16.25 -10.75 0.2255) ( 16.25 -9.95 0.2255) ( 16.25 9.95 0.2255) ( 16.25 10.75 0.2255) ( 16.25 11.25 0.2255) 
( 17.05 -11.25 0.2255) ( 17.05 -10.75 0.2255) ( 17.05 -9.95 0.2255) ( 17.05 9.95 0.2255) ( 17.05 10.75 0.2255) ( 17.05 11.25 0.2255) ( 18.05 -11.25 0.2255) ( 18.05 -10.75 0.2255) 
( 18.05 -9.95 0.2255) ( 18.05 9.95 0.2255) ( 18.05 10.75 0.2255) ( 18.05 11.25 0.2255) ( 18.85 -11.25 0.2255) ( 18.85 -10.75 0.2255) ( 18.85 -9.95 0.2255) ( 18.85 9.95 0.2255) 
( 18.85 10.75 0.2255) ( 18.85 11.25 0.2255) ( 19.85 -11.25 0.2255) ( 19.85 -10.75 0.2255) ( 19.85 -9.95 0.2255) ( 19.85 9.95 0.2255) ( 19.85 10.75 0.2255) ( 19.85 11.25 0.2255) 
( 20.65 -11.25 0.2255) ( 20.65 -10.75 0.2255) ( 20.65 -9.95 0.2255) ( 20.65 9.95 0.2255) ( 20.65 10.75 0.2255) ( 20.65 11.25 0.2255) ( 21.65 -11.25 0.2255) ( 21.65 -10.75 0.2255) 
( 21.65 -9.95 0.2255) ( 21.65 9.95 0.2255) ( 21.65 10.75 0.2255) ( 21.65 11.25 0.2255) ( 22.45 -11.25 0.2255) ( 22.45 -10.75 0.2255) ( 22.45 -9.95 0.2255) ( 22.45 9.95 0.2255) 
( 22.45 10.75 0.2255) ( 22.45 11.25 0.2255) ( 22.50 -11.25 0.2255) ( 22.50 -10.75 0.2255) ( 22.50 -9.95 0.2255) ( 22.50 9.95 0.2255) ( 22.50 10.75 0.2255) ( 22.50 11.25 0.2255) 
( 0.00 -11.25 0.0455) ( 0.00 -10.75 0.0455) ( 0.00 -9.95 0.0455) ( 0.00 9.95 0.0455) ( 0.00 10.75 0.0455) ( 0.00 11.25 0.0455) ( 0.05 -11.25 0.0455) ( 0.05 -10.75 0.0455) 
( 0.05 -9.95 0.0455) ( 0.05 9.95 0.0455) ( 0.05 10.75 0.0455) ( 0.05 11.25 0.0455) ( 0.85 -11.25 0.0455) ( 0.85 -10.75 0.0455) ( 0.85 -9.95 0.0455) ( 0.85 9.95 0.0455) 
( 0.85 10.75 0.0455) ( 0.85 11.25 0.0455) ( 1.85 -11.25 0.0455) ( 1.85 -10.75 0.0455) ( 1.85 -9.95 0.0455) ( 1.85 9.95 0.0455) ( 1.85 10.75 0.0455) ( 1.85 11.25 0.0455) 
( 2.65 -11.25 0.0455) ( 2.65 -10.75 0.0455) ( 2.65 -9.95 0.0455) ( 2.65 9.95 0.0455) ( 2.65 10.75 0.0455) ( 2.65 11.25 0.0455) ( 3.65 -11.25 0.0455) ( 3.65 -10.75 0.0455) 
( 3.65 -9.95 0.0455) ( 3.65 9.95 0.0455) ( 3.65 10.75 0.0455) ( 3.65 11.25 0.0455) ( 4.45 -11.25 0.0455) ( 4.45 -10.75 0.0455) ( 4.45 -9.95 0.0455) ( 4.45 9.95 0.0455) 
( 4.45 10.75 0.0455) ( 4.45 11.25 0.0455) ( 5.45 -11.25 0.0455) ( 5.45 -10.75 0.0455) ( 5.45 -9.95 0.0455) ( 5.45 9.95 0.0455) ( 5.45 10.75 0.0455) ( 5.45 11.25 0.0455) 
( 6.25 -11.25 0.0455) ( 6.25 -10.75 0.0455) ( 6.25 -9.95 0.0455) ( 6.25 9.95 0.0455) ( 6.25 10.75 0.0455) ( 6.25 11.25 0.0455) ( 7.25 -11.25 0.0455) ( 7.25 -10.75 0.0455) 
( 7.25 -9.95 0.0455) ( 7.25 9.95 0.0455) ( 7.25 10.75 0.0455) ( 7.25 11.25 0.0455) ( 8.05 -11.25 0.0455) ( 8.05 -10.75 0.0455) ( 8.05 -9.95 0.0455) ( 8.05 9.95 0.0455) 
( 8.05 10.75 0.0455) ( 8.05 11.25 0.0455) ( 9.05 -11.25 0.0455) ( 9.05 -10.75 0.0455) ( 9.05 -9.95 0.0455) ( 9.05 9.95 0.0455) ( 9.05 10.75 0.0455) ( 9.05 11.25 0.0455) 
( 9.85 -11.25 0.0455) ( 9.85 -10.75 0.0455) ( 9.85 -9.95 0.0455) ( 9.85 9.95 0.0455) ( 9.85 10.75 0.0455) ( 9.85 11.25 0.0455) ( 10.85 -11.25 0.0455) ( 10.85 -10.75 0.0455) 
( 10.85 -9.95 0.0455) ( 10.85 9.95 0.0455) ( 10.85 10.75 0.0455) ( 10.85 11.25 0.0455) ( 11.65 -11.25 0.0455) ( 11.65 -10.75 0.0455) ( 11.65 -9.95 0.0455) ( 11.65 9.95 0.0455) 
( 11.65 10.75 0.0455) ( 11.65 11.25 0.0455) ( 12.65 -11.25 0.0455) ( 12.65 -10.75 0.0455) ( 12.65 -9.95 0.0455) ( 12.65 9.95 0.0455) ( 12.65 10.75 0.0455) ( 12.65 11.25 0.0455) 
( 13.45 -11.25 0.0455) ( 13.45 -10.75 0.0455) ( 13.45 -9.95 0.0455) ( 13.45 9.95 0.0455) ( 13.45 10.75 0.0455) ( 13.45 11.25 0.0455) ( 14.45 -11.25 0.0455) ( 14.45 -10.75 0.0455) 
( 14.45 -9.95 0.0455) ( 14.45 9.95 0.0455) ( 14.45 10.75 0.0455) ( 14.45 11.25 0.0455) ( 15.25 -11.25 0.0455) ( 15.25 -10.75 0.0455) ( 15.25 -9.95 0.0455) ( 15.25 9.95 0.0455) 
( 15.25 10.75 0.0455) ( 15.25 11.25 0.0455) ( 16.25 -11.25 0.0455) ( 16.25 -10.75 0.0455) ( 16.25 -9.95 0.0455) ( 16.25 9.95 0.0455) ( 16.25 10.75 0.0455) ( 16.25 11.25 0.0455) 
( 17.05 -11.25 0.0455) ( 17.05 -10.75 0.0455) ( 17.05 -9.95 0.0455) ( 17.05 9.95 0.0455) ( 17.05 10.75 0.0455) ( 17.05 11.25 0.0455) ( 18.05 -11.25 0.0455) ( 18.05 -10.75 0.0455) 
( 18.05 -9.95 0.0455) ( 18.05 9.95 0.0455) ( 18.05 10.75 0.0455) ( 18.05 11.25 0.0455) ( 18.85 -11.25 0.0455) ( 18.85 -10.75 0.0455) ( 18.85 -9.95 0.0455) ( 18.85 9.95 0.0455) 
( 18.85 10.75 0.0455) ( 18.85 11.25 0.0455) ( 19.85 -11.25 0.0455) ( 19.85 -10.75 0.0455) ( 19.85 -9.95 0.0455) ( 19.85 9.95 0.0455) ( 19.85 10.75 0.0455) ( 19.85 11.25 0.0455) 
( 20.65 -11.25 0.0455) ( 20.65 -10.75 0.0455) ( 20.65 -9.95 0.0455) ( 20.65 9.95 0.0455) ( 20.65 10.75 0.0455) ( 20.65 11.25 0.0455) ( 21.65 -11.25 0.0455) ( 21.65 -10.75 0.0455) 
( 21.65 -9.95 0.0455) ( 21.65 9.95 0.0455) ( 21.65 10.75 0.0455) ( 21.65 11.25 0.0455) ( 22.45 -11.25 0.0455) ( 22.45 -10.75 0.0455) ( 22.45 -9.95 0.0455) ( 22.45 9.95 0.0455) 
( 22.45 10.75 0.0455) ( 22.45 11.25 0.0455) ( 22.50 -11.25 0.0455) ( 22.50 -10.75 0.0455) ( 22.50 -9.95 0.0455) ( 22.50 9.95 0.0455) ( 22.50 10.75 0.0455) ( 22.50 11.25 0.0455) 
( 0.00 -11.25 0.0255) ( 0.00 -10.75 0.0255) ( 0.00 -9.95 0.0255) ( 0.00 9.95 0.0255) ( 0.00 10.75 0.0255) ( 0.00 11.25 0.0255) ( 0.05 -11.25 0.0255) ( 0.05 -10.75 0.0255) 
( 0.05 -9.95 0.0255) ( 0.05 9.95 0.0255) ( 0.05 10.75 0.0255) ( 0.05 11.25 0.0255) ( 0.85 -11.25 0.0255) ( 0.85 -10.75 0.0255) ( 0.85 -9.95 0.0255) ( 0.85 9.95 0.0255) 
( 0.85 10.75 0.0255) ( 0.85 11.25 0.0255) ( 1.85 -11.25 0.0255) ( 1.85 -10.75 0.0255) ( 1.85 -9.95 0.0255) ( 1.85 9.95 0.0255) ( 1.85 10.75 0.0255) ( 1.85 11.25 0.0255) 
( 2.65 -11.25 0.0255) ( 2.65 -10.75 0.0255) ( 2.65 -9.95 0.0255) ( 2.65 9.95 0.0255) ( 2.65 10.75 0.0255) ( 2.65 11.25 0.0255) ( 3.65 -11.25 0.0255) ( 3.65 -10.75 0.0255) 
( 3.65 -9.95 0.0255) ( 3.65 9.95 0.0255) ( 3.65 10.75 0.0255) ( 3.65 11.25 0.0255) ( 4.45 -11.25 0.0255) ( 4.45 -10.75 0.0255) ( 4.45 -9.95 0.0255) ( 4.45 9.95 0.0255) 
( 4.45 10.75 0.0255) ( 4.45 11.25 0.0255) ( 5.45 -11.25 0.0255) ( 5.45 -10.75 0.0255) ( 5.45 -9.95 0.0255) ( 5.45 9.95 0.0255) ( 5.45 10.75 0.0255) ( 5.45 11.25 0.0255) 
( 6.25 -11.25 0.0255) ( 6.25 -10.75 0.0255) ( 6.25 -9.95 0.0255) ( 6.25 9.95 0.0255) ( 6.25 10.75 0.0255) ( 6.25 11.25 0.0255) ( 7.25 -11.25 0.0255) ( 7.25 -10.75 0.0255) 
( 7.25 -9.95 0.0255) ( 7.25 9.95 0.0255) ( 7.25 10.75 0.0255) ( 7.25 11.25 0.0255) ( 8.05 -11.25 0.0255) ( 8.05 -10.75 0.0255) ( 8.05 -9.95 0.0255) ( 8.05 9.95 0.0255) 
( 8.05 10.75 0.0255) ( 8.05 11.25 0.0255) ( 9.05 -11.25 0.0255) ( 9.05 -10.75 0.0255) ( 9.05 -9.95 0.0255) ( 9.05 9.95 0.0255) ( 9.05 10.75 0.0255) ( 9.05 11.25 0.0255) 
( 9.85 -11.25 0.0255) ( 9.85 -10.75 0.0255) ( 9.85 -9.95 0.0255) ( 9.85 9.95 0.0255) ( 9.85 10.75 0.0255) ( 9.85 11.25 0.0255) ( 10.85 -11.25 0.0255) ( 10.85 -10.75 0.0255) 
( 10.85 -9.95 0.0255) ( 10.85 9.95 0.0255) ( 10.85 10.75 0.0255) ( 10.85 11.25 0.0255) ( 11.65 -11.25 0.0255) ( 11.65 -10.75 0.0255) ( 11.65 -9.95 0.0255) ( 11.65 9.95 0.0255) 
( 11.65 10.75 0.0255) ( 11.65 11.25 0.0255) ( 12.65 -11.25 0.0255) ( 12.65 -10.75 0.0255) ( 12.65 -9.95 0.0255) ( 12.65 9.95 0.0255) ( 12.65 10.75 0.0255) ( 12.65 11.25 0.0255) 
( 13.45 -11.25 0.0255) ( 13.45 -10.75 0.0255) ( 13.45 -9.95 0.0255) ( 13.45 9.95 0.0255) ( 13.45 10.75 0.0255) ( 13.45 11.25 0.0255) ( 14.45 -11.25 0.0255) ( 14.45 -10.75 0.0255) 
( 14.45 -9.95 0.0255) ( 14.45 9.95 0.0255) ( 14.45 10.75 0.0255) ( 14.45 11.25 0.0255) ( 15.25 -11.25 0.0255) ( 15.25 -10.75 0.0255) ( 15.25 -9.95 0.0255) ( 15.25 9.95 0.0255) 
( 15.25 10.75 0.0255) ( 15.25 11.25 0.0255) ( 16.25 -11.25 0.0255) ( 16.25 -10.75 0.0255) ( 16.25 -9.95 0.0255) ( 16.25 9.95 0.0255) ( 16.25 10.75 0.0255) ( 16.25 11.25 0.0255) 
( 17.05 -11.25 0.0255) ( 17.05 -10.75 0.0255) ( 17.05 -9.95 0.0255) ( 17.05 9.95 0.0255) ( 17.05 10.75 0.0255) ( 17.05 11.25 0.0255) ( 18.05 -11.25 0.0255) ( 18.05 -10.75 0.0255) 
( 18.05 -9.95 0.0255) ( 18.05 9.95 0.0255) ( 18.05 10.75 0.0255) ( 18.05 11.25 0.0255) ( 18.85 -11.25 0.0255) ( 18.85 -10.75 0.0255) ( 18.85 -9.95 0.0255) ( 18.85 9.95 0.0255) 
( 18.85 10.75 0.0255) ( 18.85 11.25 0.0255) ( 19.85 -11.25 0.0255) ( 19.85 -10.75 0.0255) ( 19.85 -9.95 0.0255) ( 19.85 9.95 0.0255) ( 19.85 10.75 0.0255) ( 19.85 11.25 0.0255) 
( 20.65 -11.25 0.0255) ( 20.65 -10.75 0.0255) ( 20.65 -9.95 0.0255) ( 20.65 9.95 0.0255) ( 20.65 10.75 0.0255) ( 20.65 11.25 0.0255) ( 21.65 -11.25 0.0255) ( 21.65 -10.75 0.0255) 
( 21.65 -9.95 0.0255) ( 21.65 9.95 0.0255) ( 21.65 10.75 0.0255) ( 21.65 11.25 0.0255) ( 22.45 -11.25 0.0255) ( 22.45 -10.75 0.0255) ( 22.45 -9.95 0.0255) ( 22.45 9.95 0.0255) 
( 22.45 10.75 0.0255) ( 22.45 11.25 0.0255) ( 22.50 -11.25 0.0255) ( 22.50 -10.75 0.0255) ( 22.50 -9.95 0.0255) ( 22.50 9.95 0.0255) ( 22.50 10.75 0.0255) ( 22.50 11.25 0.0255) 
( 0.00 -11.25 0.0250) ( 0.00 -10.75 0.0250) ( 0.00 -9.95 0.0250) ( 0.00 9.95 0.0250) ( 0.00 10.75 0.0250) ( 0.00 11.25 0.0250) ( 0.05 -11.25 0.0250) ( 0.05 -10.75 0.0250) 
( 0.05 -9.95 0.0250) ( 0.05 9.95 0.0250) ( 0.05 10.75 0.0250) ( 0.05 11.25 0.0250) ( 0.85 -11.25 0.0250) ( 0.85 -10.75 0.0250) ( 0.85 -9.95 0.0250) ( 0.85 9.95 0.0250) 
( 0.85 10.75 0.0250) ( 0.85 11.25 0.0250) ( 1.85 -11.25 0.0250) ( 1.85 -10.75 0.0250) ( 1.85 -9.95 0.0250) ( 1.85 9.95 0.0250) ( 1.85 10.75 0.0250) ( 1.85 11.25 0.0250) 
( 2.65 -11.25 0.0250) ( 2.65 -10.75 0.0250) ( 2.65 -9.95 0.0250) ( 2.65 9.95 0.0250) ( 2.65 10.75 0.0250) ( 2.65 11.25 0.0250) ( 3.65 -11.25 0.0250) ( 3.65 -10.75 0.0250) 
( 3.65 -9.95 0.0250) ( 3.65 9.95 0.0250) ( 3.65 10.75 0.0250) ( 3.65 11.25 0.0250) ( 4.45 -11.25 0.0250) ( 4.45 -10.75 0.0250) ( 4.45 -9.95 0.0250) ( 4.45 9.95 0.0250) 
( 4.45 10.75 0.0250) ( 4.45 11.25 0.0250) ( 5.45 -11.25 0.0250) ( 5.45 -10.75 0.0250) ( 5.45 -9.95 0.0250) ( 5.45 9.95 0.0250) ( 5.45 10.75 0.0250) ( 5.45 11.25 0.0250) 
( 6.25 -11.25 0.0250) ( 6.25 -10.75 0.0250) ( 6.25 -9.95 0.0250) ( 6.25 9.95 0.0250) ( 6.25 10.75 0.0250) ( 6.25 11.25 0.0250) ( 7.25 -11.25 0.0250) ( 7.25 -10.75 0.0250) 
( 7.25 -9.95 0.0250) ( 7.25 9.95 0.0250) ( 7.25 10.75 0.0250) ( 7.25 11.25 0.0250) ( 8.05 -11.25 0.0250) ( 8.05 -10.75 0.0250) ( 8.05 -9.95 0.0250) ( 8.05 9.95 0.0250) 
( 8.05 10.75 0.0250) ( 8.05 11.25 0.0250) ( 9.05 -11.25 0.0250) ( 9.05 -10.75 0.0250) ( 9.05 -9.95 0.0250) ( 9.05 9.95 0.0250) ( 9.05 10.75 0.0250) ( 9.05 11.25 0.0250) 
( 9.85 -11.25 0.0250) ( 9.85 -10.75 0.0250) ( 9.85 -9.95 0.0250) ( 9.85 9.95 0.0250) ( 9.85 10.75 0.0250) ( 9.85 11.25 0.0250) ( 10.85 -11.25 0.0250) ( 10.85 -10.75 0.0250) 
( 10.85 -9.95 0.0250) ( 10.85 9.95 0.0250) ( 10.85 10.75 0.0250) ( 10.85 11.25 0.0250) ( 11.65 -11.25 0.0250) ( 11.65 -10.75 0.0250) ( 11.65 -9.95 0.0250) ( 11.65 9.95 0.0250) 
( 11.65 10.75 0.0250) ( 11.65 11.25 0.0250) ( 12.65 -11.25 0.0250) ( 12.65 -10.75 0.0250) ( 12.65 -9.95 0.0250) ( 12.65 9.95 0.0250) ( 12.65 10.75 0.0250) ( 12.65 11.25 0.0250) 
( 13.45 -11.25 0.0250) ( 13.45 -10.75 0.0250) ( 13.45 -9.95 0.0250) ( 13.45 9.95 0.0250) ( 13.45 10.75 0.0250) ( 13.45 11.25 0.0250) ( 14.45 -11.25 0.0250) ( 14.45 -10.75 0.0250) 
( 14.45 -9.95 0.0250) ( 14.45 9.95 0.0250) ( 14.45 10.75 0.0250) ( 14.45 11.25 0.0250) ( 15.25 -11.25 0.0250) ( 15.25 -10.75 0.0250) ( 15.25 -9.95 0.0250) ( 15.25 9.95 0.0250) 
( 15.25 10.75 0.0250) ( 15.25 11.25 0.0250) ( 16.25 -11.25 0.0250) ( 16.25 -10.75 0.0250) ( 16.25 -9.95 0.0250) ( 16.25 9.95 0.0250) ( 16.25 10.75 0.0250) ( 16.25 11.25 0.0250) 
( 17.05 -11.25 0.0250) ( 17.05 -10.75 0.0250) ( 17.05 -9.95 0.0250) ( 17.05 9.95 0.0250) ( 17.05 10.75 0.0250) ( 17.05 11.25 0.0250) ( 18.05 -11.25 0.0250) ( 18.05 -10.75 0.0250) 
( 18.05 -9.95 0.0250) ( 18.05 9.95 0.0250) ( 18.05 10.75 0.0250) ( 18.05 11.25 0.0250) ( 18.85 -11.25 0.0250) ( 18.85 -10.75 0.0250) ( 18.85 -9.95 0.0250) ( 18.85 9.95 0.0250) 
( 18.85 10.75 0.0250) ( 18.85 11.25 0.0250) ( 19.85 -11.25 0.0250) ( 19.85 -10.75 0.0250) ( 19.85 -9.95 0.0250) ( 19.85 9.95 0.0250) ( 19.85 10.75 0.0250) ( 19.85 11.25 0.0250) 
( 20.65 -11.25 0.0250) ( 20.65 -10.75 0.0250) ( 20.65 -9.95 0.0250) ( 20.65 9.95 0.0250) ( 20.65 10.75 0.0250) ( 20.65 11.25 0.0250) ( 21.65 -11.25 0.0250) ( 21.65 -10.75 0.0250) 
( 21.65 -9.95 0.0250) ( 21.65 9.95 0.0250) ( 21.65 10.75 0.0250) ( 21.65 11.25 0.0250) ( 22.45 -11.25 0.0250) ( 22.45 -10.75 0.0250) ( 22.45 -9.95 0.0250) ( 22.45 9.95 0.0250) 
( 22.45 10.75 0.0250) ( 22.45 11.25 0.0250) ( 22.50 -11.25 0.0250) ( 22.50 -10.75 0.0250) ( 22.50 -9.95 0.0250) ( 22.50 9.95 0.0250) ( 22.50 10.75 0.0250) ( 22.50 11.25 0.0250) 
( 0.00 -11.25 -0.0250) ( 0.00 -10.75 -0.0250) ( 0.00 -9.95 -0.0250) ( 0.00 9.95 -0.0250) ( 0.00 10.75 -0.0250) ( 0.00 11.25 -0.0250) ( 0.05 -11.25 -0.0250) ( 0.05 -10.75 -0.0250) 
( 0.05 -9.95 -0.0250) ( 0.05 9.95 -0.0250) ( 0.05 10.75 -0.0250) ( 0.05 11.25 -0.0250) ( 0.85 -11.25 -0.0250) ( 0.85 -10.75 -0.0250) ( 0.85 -9.95 -0.0250) ( 0.85 9.95 -0.0250) 
( 0.85 10.75 -0.0250) ( 0.85 11.25 -0.0250) ( 1.85 -11.25 -0.0250) ( 1.85 -10.75 -0.0250) ( 1.85 -9.95 -0.0250) ( 1.85 9.95 -0.0250) ( 1.85 10.75 -0.0250) ( 1.85 11.25 -0.0250) 
( 2.65 -11.25 -0.0250) ( 2.65 -10.75 -0.0250) ( 2.65 -9.95 -0.0250) ( 2.65 9.95 -0.0250) ( 2.65 10.75 -0.0250) ( 2.65 11.25 -0.0250) ( 3.65 -11.25 -0.0250) ( 3.65 -10.75 -0.0250) 
( 3.65 -9.95 -0.0250) ( 3.65 9.95 -0.0250) ( 3.65 10.75 -0.0250) ( 3.65 11.25 -0.0250) ( 4.45 -11.25 -0.0250) ( 4.45 -10.75 -0.0250) ( 4.45 -9.95 -0.0250) ( 4.45 9.95 -0.0250) 
( 4.45 10.75 -0.0250) ( 4.45 11.25 -0.0250) ( 5.45 -11.25 -0.0250) ( 5.45 -10.75 -0.0250) ( 5.45 -9.95 -0.0250) ( 5.45 9.95 -0.0250) ( 5.45 10.75 -0.0250) ( 5.45 11.25 -0.0250) 
( 6.25 -11.25 -0.0250) ( 6.25 -10.75 -0.0250) ( 6.25 -9.95 -0.0250) ( 6.25 9.95 -0.0250) ( 6.25 10.75 -0.0250) ( 6.25 11.25 -0.0250) ( 7.25 -11.25 -0.0250) ( 7.25 -10.75 -0.0250) 
( 7.25 -9.95 -0.0250) ( 7.25 9.95 -0.0250) ( 7.25 10.75 -0.0250) ( 7.25 11.25 -0.0250) ( 8.05 -11.25 -0.0250) ( 8.05 -10.75 -0.0250) ( 8.05 -9.95 -0.0250) ( 8.05 9.95 -0.0250) 
( 8.05 10.75 -0.0250) ( 8.05 11.25 -0.0250) ( 9.05 -11.25 -0.0250) ( 9.05 -10.75 -0.0250) ( 9.05 -9.95 -0.0250) ( 9.05 9.95 -0.0250) ( 9.05 10.75 -0.0250) ( 9.05 11.25 -0.0250) 
( 9.85 -11.25 -0.0250) ( 9.85 -10.75 -0.0250) ( 9.85 -9.95 -0.0250) ( 9.85 9.95 -0.0250) ( 9.85 10.75 -0.0250) ( 9.85 11.25 -0.0250) ( 10.85 -11.25 -0.0250) ( 10.85 -10.75 -0.0250) 
( 10.85 -9.95 -0.0250) ( 10.85 9.95 -0.0250) ( 10.85 10.75 -0.0250) ( 10.85 11.25 -0.0250) ( 11.65 -11.25 -0.0250) ( 11.65 -10.75 -0.0250) ( 11.65 -9.95 -0.0250) ( 11.65 9.95 -0.0250) 
( 11.65 10.75 -0.0250) ( 11.65 11.25 -0.0250) ( 12.65 -11.25 -0.0250) ( 12.65 -10.75 -0.0250) ( 12.65 -9.95 -0.0250) ( 12.65 9.95 -0.0250) ( 12.65 10.75 -0.0250) ( 12.65 11.25 -0.0250) 
( 13.45 -11.25 -0.0250) ( 13.45 -10.75 -0.0250) ( 13.45 -9.95 -0.0250) ( 13.45 9.95 -0.0250) ( 13.45 10.75 -0.0250) ( 13.45 11.25 -0.0250) ( 14.45 -11.25 -0.0250) ( 14.45 -10.75 -0.0250) 
( 14.45 -9.95 -0.0250) ( 14.45 9.95 -0.0250) ( 14.45 10.75 -0.0250) ( 14.45 11.25 -0.0250) ( 15.25 -11.25 -0.0250) ( 15.25 -10.75 -0.0250) ( 15.25 -9.95 -0.0250) ( 15.25 9.95 -0.0250) 
( 15.25 10.75 -0.0250) ( 15.25 11.25 -0.0250) ( 16.25 -11.25 -0.0250) ( 16.25 -10.75 -0.0250) ( 16.25 -9.95 -0.0250) ( 16.25 9.95 -0.0250) ( 16.25 10.75 -0.0250) ( 16.25 11.25 -0.0250) 
( 17.05 -11.25 -0.0250) ( 17.05 -10.75 -0.0250) ( 17.05 -9.95 -0.0250) ( 17.05 9.95 -0.0250) ( 17.05 10.75 -0.0250) ( 17.05 11.25 -0.0250) ( 18.05 -11.25 -0.0250) ( 18.05 -10.75 -0.0250) 
( 18.05 -9.95 -0.0250) ( 18.05 9.95 -0.0250) ( 18.05 10.75 -0.0250) ( 18.05 11.25 -0.0250) ( 18.85 -11.25 -0.0250) ( 18.85 -10.75 -0.0250) ( 18.85 -9.95 -0.0250) ( 18.85 9.95 -0.0250) 
( 18.85 10.75 -0.0250) ( 18.85 11.25 -0.0250) ( 19.85 -11.25 -0.0250) ( 19.85 -10.75 -0.0250) ( 19.85 -9.95 -0.0250) ( 19.85 9.95 -0.0250) ( 19.85 10.75 -0.0250) ( 19.85 11.25 -0.0250) 
( 20.65 -11.25 -0.0250) ( 20.65 -10.75 -0.0250) ( 20.65 -9.95 -0.0250) ( 20.65 9.95 -0.0250) ( 20.65 10.75 -0.0250) ( 20.65 11.25 -0.0250) ( 21.65 -11.25 -0.0250) ( 21.65 -10.75 -0.0250) 
( 21.65 -9.95 -0.0250) ( 21.65 9.95 -0.0250) ( 21.65 10.75 -0.0250) ( 21.65 11.25 -0.0250) ( 22.45 -11.25 -0.0250) ( 22.45 -10.75 -0.0250) ( 22.45 -9.95 -0.0250) ( 22.45 9.95 -0.0250) 
( 22.45 10.75 -0.0250) ( 22.45 11.25 -0.0250) ( 22.50 -11.25 -0.0250) ( 22.50 -10.75 -0.0250) ( 22.50 -9.95 -0.0250) ( 22.50 9.95 -0.0250) ( 22.50 10.75 -0.0250) ( 22.50 11.25 -0.0250) 
( 0.00 -11.25 -0.0255) ( 0.00 -10.75 -0.0255) ( 0.00 -9.95 -0.0255) ( 0.00 9.95 -0.0255) ( 0.00 10.75 -0.0255) ( 0.00 11.25 -0.0255) ( 0.05 -11.25 -0.0255) ( 0.05 -10.75 -0.0255) 
( 0.05 -9.95 -0.0255) ( 0.05 9.95 -0.0255) ( 0.05 10.75 -0.0255) ( 0.05 11.25 -0.0255) ( 0.85 -11.25 -0.0255) ( 0.85 -10.75 -0.0255) ( 0.85 -9.95 -0.0255) ( 0.85 9.95 -0.0255) 
( 0.85 10.75 -0.0255) ( 0.85 11.25 -0.0255) ( 1.85 -11.25 -0.0255) ( 1.85 -10.75 -0.0255) ( 1.85 -9.95 -0.0255) ( 1.85 9.95 -0.0255) ( 1.85 10.75 -0.0255) ( 1.85 11.25 -0.0255) 
( 2.65 -11.25 -0.0255) ( 2.65 -10.75 -0.0255) ( 2.65 -9.95 -0.0255) ( 2.65 9.95 -0.0255) ( 2.65 10.75 -0.0255) ( 2.65 11.25 -0.0255) ( 3.65 -11.25 -0.0255) ( 3.65 -10.75 -0.0255) 
( 3.65 -9.95 -0.0255) ( 3.65 9.95 -0.0255) ( 3.65 10.75 -0.0255) ( 3.65 11.25 -0.0255) ( 4.45 -11.25 -0.0255) ( 4.45 -10.75 -0.0255) ( 4.45 -9.95 -0.0255) ( 4.45 9.95 -0.0255) 
( 4.45 10.75 -0.0255) ( 4.45 11.25 -0.0255) ( 5.45 -11.25 -0.0255) ( 5.45 -10.75 -0.0255) ( 5.45 -9.95 -0.0255) ( 5.45 9.95 -0.0255) ( 5.45 10.75 -0.0255) ( 5.45 11.25 -0.0255) 
( 6.25 -11.25 -0.0255) ( 6.25 -10.75 -0.0255) ( 6.25 -9.95 -0.0255) ( 6.25 9.95 -0.0255) ( 6.25 10.75 -0.0255) ( 6.25 11.25 -0.0255) ( 7.25 -11.25 -0.0255) ( 7.25 -10.75 -0.0255) 
( 7.25 -9.95 -0.0255) ( 7.25 9.95 -0.0255) ( 7.25 10.75 -0.0255) ( 7.25 11.25 -0.0255) ( 8.05 -11.25 -0.0255) ( 8.05 -10.75 -0.0255) ( 8.05 -9.95 -0.0255) ( 8.05 9.95 -0.0255) 
( 8.05 10.75 -0.0255) ( 8.05 11.25 -0.0255) ( 9.05 -11.25 -0.0255) ( 9.05 -10.75 -0.0255) ( 9.05 -9.95 -0.0255) ( 9.05 9.95 -0.0255) ( 9.05 10.75 -0.0255) ( 9.05 11.25 -0.0255) 
( 9.85 -11.25 -0.0255) ( 9.85 -10.75 -0.0255) ( 9.85 -9.95 -0.0255) ( 9.85 9.95 -0.0255) ( 9.85 10.75 -0.0255) ( 9.85 11.25 -0.0255) ( 10.85 -11.25 -0.0255) ( 10.85 -10.75 -0.0255) 
( 10.85 -9.95 -0.0255) ( 10.85 9.95 -0.0255) ( 10.85 10.75 -0.0255) ( 10.85 11.25 -0.0255) ( 11.65 -11.25 -0.0255) ( 11.65 -10.75 -0.0255) ( 11.65 -9.95 -0.0255) ( 11.65 9.95 -0.0255) 
( 11.65 10.75 -0.0255) ( 11.65 11.25 -0.0255) ( 12.65 -11.25 -0.0255) ( 12.65 -10.75 -0.0255) ( 12.65 -9.95 -0.0255) ( 12.65 9.95 -0.0255) ( 12.65 10.75 -0.0255) ( 12.65 11.25 -0.0255) 
( 13.45 -11.25 -0.0255) ( 13.45 -10.75 -0.0255) ( 13.45 -9.95 -0.0255) ( 13.45 9.95 -0.0255) ( 13.45 10.75 -0.0255) ( 13.45 11.25 -0.0255) ( 14.45 -11.25 -0.0255) ( 14.45 -10.75 -0.0255) 
( 14.45 -9.95 -0.0255) ( 14.45 9.95 -0.0255) ( 14.45 10.75 -0.0255) ( 14.45 11.25 -0.0255) ( 15.25 -11.25 -0.0255) ( 15.25 -10.75 -0.0255) ( 15.25 -9.95 -0.0255) ( 15.25 9.95 -0.0255) 
( 15.25 10.75 -0.0255) ( 15.25 11.25 -0.0255) ( 16.25 -11.25 -0.0255) ( 16.25 -10.75 -0.0255) ( 16.25 -9.95 -0.0255) ( 16.25 9.95 -0.0255) ( 16.25 10.75 -0.0255) ( 16.25 11.25 -0.0255) 
( 17.05 -11.25 -0.0255) ( 17.05 -10.75 -0.0255) ( 17.05 -9.95 -0.0255) ( 17.05 9.95 -0.0255) ( 17.05 10.75 -0.0255) ( 17.05 11.25 -0.0255) ( 18.05 -11.25 -0.0255) ( 18.05 -10.75 -0.0255) 
( 18.05 -9.95 -0.0255) ( 18.05 9.95 -0.0255) ( 18.05 10.75 -0.0255) ( 18.05 11.25 -0.0255) ( 18.85 -11.25 -0.0255) ( 18.85 -10.75 -0.0255) ( 18.85 -9.95 -0.0255) ( 18.85 9.95 -0.0255) 
( 18.85 10.75 -0.0255) ( 18.85 11.25 -0.0255) ( 19.85 -11.25 -0.0255) ( 19.85 -10.75 -0.0255) ( 19.85 -9.95 -0.0255) ( 19.85 9.95 -0.0255) ( 19.85 10.75 -0.0255) ( 19.85 11.25 -0.0255) 
( 20.65 -11.25 -0.0255) ( 20.65 -10.75 -0.0255) ( 20.65 -9.95 -0.0255) ( 20.65 9.95 -0.0255) ( 20.65 10.75 -0.0255) ( 20.65 11.25 -0.0255) ( 21.65 -11.25 -0.0255) ( 21.65 -10.75 -0.0255) 